9

O      -1.131870   -1.119790   -0.358330
H      -1.768670   -1.583190    0.198370
H      -1.238470   -0.173090   -0.139630
O       1.560130   -0.351090   -0.325930
H       0.778430   -0.937690   -0.313130
H       2.231830   -0.810090    0.191970
O      -0.448270    1.569210    0.017670
H      -0.429770    2.229410    0.720470
H       0.446630    1.176310    0.008570
